                                   MODFLOW 6
                U.S. GEOLOGICAL SURVEY MODULAR HYDROLOGIC MODEL
                        VERSION 6.4.1 Release 12/09/2022

   MODFLOW 6 compiled Dec 09 2022 18:18:37 with Intel(R) Fortran Intel(R) 64
   Compiler Classic for applications running on Intel(R) 64, Version 2021.7.0
                             Build 20220726_000000

This software has been approved for release by the U.S. Geological 
Survey (USGS). Although the software has been subjected to rigorous 
review, the USGS reserves the right to update the software as needed 
pursuant to further analysis and review. No warranty, expressed or 
implied, is made by the USGS or the U.S. Government as to the 
functionality of the software and related material nor shall the 
fact of release constitute any such warranty. Furthermore, the 
software is released on condition that neither the USGS nor the U.S. 
Government shall be held liable for any damages resulting from its 
authorized or unauthorized use. Also refer to the USGS Water 
Resources Software User Rights Notice for complete use, copyright, 
and distribution information.


As a work of the United States Government, this USGS product is 
in the public domain within the United States. You can copy, 
modify, distribute, and perform the work, even for commercial 
purposes, all without asking permission. Additionally, USGS 
waives copyright and related rights in the work worldwide 
through CC0 1.0 Universal Public Domain Dedication 
(https://creativecommons.org/publicdomain/zero/1.0/).

The following GNU Lesser General Public License (LGPL) libraries
are used in this USGS product:

    SPARSKIT version 2.0
      ilut, luson, and qsplit 
      (https://www-users.cse.umn.edu/~saad/software/SPARSKIT/)

    RCM - Reverse Cuthill McKee Ordering
      (https://people.math.sc.edu/Burkardt/f_src/rcm/rcm.html)

    BLAS - Basic Linear Algebra Subprograms Level 1
      (https://people.math.sc.edu/Burkardt/f_src/blas1_d/blas1_d.html)

    SPARSEKIT - Sparse Matrix Utility Package
      amux, dperm, dvperm, rperm, and cperm
      (https://people.sc.fsu.edu/~jburkardt/f77_src/sparsekit/sparsekit.html)

The following BSD-3 License libraries are used in this USGS product:

    Modern Fortran DAG Library
      Copyright (c) 2018, Jacob Williams
      All rights reserved.
      (https://github.com/jacobwilliams/daglib)

MODFLOW 6 compiler options: /Isrc\libmf6core.a.p /Isrc /I..\src
/Isrc\libmf6_external.a.p /MTd /nologo /warn:general /warn:truncated_source
/stand:f08 /Zi /traceback /O2 /fpe:0 /heap-arrays:0 /traceback /fpp
/Qdiag-disable:7416 /Qdiag-disable:7025 /Qdiag-disable:5268
/Fdsrc\libmf6core.a.p\Utilities_compilerversion.F90.pdb
/module:src\libmf6core.a.p
/Fosrc/libmf6core.a.p/Utilities_compilerversion.F90.obj /c

System command used to initiate simulation:
C:\Users\buckl\Documents\Software\mf6.4.1\bin\mf6.exe

MODFLOW was compiled using uniform precision.

Real Variables
  KIND: 8
  TINY (smallest non-zero value):    2.225074-308
  HUGE (largest value):    1.797693+308
  PRECISION: 15
  SIZE IN BITS: 64

Integer Variables
  KIND: 4
  HUGE (largest value): 2147483647
  SIZE IN BITS: 32

Long Integer Variables
  KIND: 8
  HUGE (largest value): 9223372036854775807
  SIZE IN BITS: 64

Logical Variables
  KIND: 4
  SIZE IN BITS: 32
 

 OPENED mfsim.nam
 FILE TYPE:NAM   UNIT 1001   STATUS:OLD                 
 FORMAT:FORMATTED              ACCESS:SEQUENTIAL          
 ACTION:READ                

 # File generated by Flopy version 3.5.0 on 02/07/2024 at 22:29:43.

 READING SIMULATION OPTIONS
 END OF SIMULATION OPTIONS

 READING SIMULATION TIMING

 OPENED gwf_sfr_p01.tdis
 FILE TYPE:TDIS   UNIT 1002   STATUS:OLD                 
 FORMAT:FORMATTED              ACCESS:SEQUENTIAL          
 ACTION:READ                


 TDIS -- TEMPORAL DISCRETIZATION PACKAGE,
 VERSION 1 : 11/13/2014 - INPUT READ FROM UNIT 1002
 # File generated by Flopy version 3.5.0 on 02/07/2024 at 22:29:43.
 PROCESSING TDIS OPTIONS
    SIMULATION TIME UNIT IS SECONDS
 END OF TDIS OPTIONS
 PROCESSING TDIS DIMENSIONS
    3 STRESS PERIOD(S) IN SIMULATION
 END OF TDIS DIMENSIONS
 PROCESSING TDIS PERIODDATA


 STRESS PERIOD     LENGTH       TIME STEPS     MULTIPLIER FOR DELT
 ----------------------------------------------------------------------------
        1         0.000000          1                    1.000
        2        1.5778800E+09     50                    1.100
        3        1.5778800E+09     50                    1.100

 PERLEN IS ZERO FOR STRESS PERIOD 1. PERLEN MUST NOT BE ZERO FOR TRANSIENT PERIODS.
 END OF TDIS PERIODDATA
 END OF SIMULATION TIMING

 READING SIMULATION MODELS
    GWF6 model GWF_SFR_P01 will be created as model 1
 END OF SIMULATION MODELS

 READING SIMULATION EXCHANGES
 END OF SIMULATION EXCHANGES

 READING SOLUTIONGROUP

 Creating solution: SLN_1           

 OPENED gwf_sfr_p01.ims
 FILE TYPE:IMS   UNIT 1015   STATUS:OLD                 
 FORMAT:FORMATTED              ACCESS:SEQUENTIAL          
 ACTION:READ                

 END OF SIMULATION SOLUTIONGROUP

PROCESSING MODEL CONNECTIONS

 IMS -- ITERATIVE MODEL SOLUTION PACKAGE, VERSION 6, 4/28/2017
         INPUT READ FROM UNIT 1015
 # File generated by Flopy version 3.5.0 on 02/07/2024 at 22:29:43.

 PROCESSING IMS OPTIONS
 END OF IMS OPTIONS

 PROCESSING IMS NONLINEAR
 END OF IMS NONLINEAR DATA
 ***UNDER-RELAXATION WILL NOT BE USED***
 
 ***IMS LINEAR SOLVER WILL BE USED***

 IMSLINEAR -- UNSTRUCTURED LINEAR SOLUTION PACKAGE, VERSION 8, 04/28/2017

 PROCESSING LINEAR DATA
 END OF LINEAR DATA
 
 An asymmetric matrix will be solved

 OUTER ITERATION CONVERGENCE CRITERION    (DVCLOSE) =    0.100000E-05
 MAXIMUM NUMBER OF OUTER ITERATIONS        (MXITER) = 100
 SOLVER PRINTOUT INDEX                     (IPRIMS) = 1
 NONLINEAR ITERATION METHOD            (NONLINMETH) = 0
 LINEAR SOLUTION METHOD                   (LINMETH) = 1

       SOLUTION BY THE BICONJUGATE-GRADIENT STABILIZED METHOD
 ------------------------------------------------------------------
 MAXIMUM OF 100 CALLS OF SOLUTION ROUTINE
 MAXIMUM OF 50 INTERNAL ITERATIONS PER CALL TO SOLUTION ROUTINE
 LINEAR ACCELERATION METHOD            = BCGS      
 MATRIX PRECONDITIONING TYPE           = INCOMPLETE LU       
 MATRIX SCALING APPROACH               = NO SCALING          
 MATRIX REORDERING APPROACH            = ORIGINAL ORDERING        
 NUMBER OF ORTHOGONALIZATIONS          = 0
 HEAD CHANGE CRITERION FOR CLOSURE     =    0.10000E-05
 RESIDUAL CHANGE CRITERION FOR CLOSURE =    0.10000E-05
 RESIDUAL CONVERGENCE OPTION           = 1
 RESIDUAL CONVERGENCE NORM             = INFINITY NORM S 
 RELAXATION FACTOR                     =    0.00000E+00



 
    Solving:  Stress period:     1    Time step:     1
 
1
                            STRESS PERIOD NO. 1, LENGTH =   0.000000    
                            -----------------------------------------------
                            NUMBER OF TIME STEPS = 1
                            MULTIPLIER FOR DELT =     1.000
                            INITIAL TIME STEP SIZE =   0.000000    



 PSEUDO-TRANSIENT CONTINUATION WILL BE APPLIED TO MODEL 1 ("GWF_SFR_P01") DURING THIS TIME STEP

 SLN_1 OUTER ITERATION SUMMARY
 ----------------------------------------------------------------------------------------------------------
                                OUTER      INNER                    STEP   MAXIMUM CHANGE MODEL-(CELLID) OR
 OUTER ITERATION STEP       ITERATION  ITERATION  MAXIMUM CHANGE SUCCESS             MODEL-PACKAGE-(NUMBER)
 ----------------------------------------------------------------------------------------------------------
 Model                              1         11      -72.694262                             1_GWF-(1,14,2)
 Model                              2          8      -31.685153                              1_GWF-(1,1,1)
 Model                              3          7      -3.3954854                             1_GWF-(1,10,7)
 Model                              4          8     -0.92498790                              1_GWF-(1,3,3)
 Model                              5          7 -9.60330080E-02                              1_GWF-(1,6,6)
 Model                              6          6 -5.28616184E-03                              1_GWF-(1,6,6)
 Model                              7          5 -3.29708424E-04                             1_GWF-(1,11,7)
 Model                              8          4 -2.33593140E-05                             1_GWF-(1,13,1)
 Model                              9          2 -1.68225529E-06                             1_GWF-(1,13,1)
 Model                             10          1 -1.01661271E-07       *                     1_GWF-(1,13,1)
 Package                           10             1.71191004E-07       *               1_GWF-SFR-(27)-stage
 ----------------------------------------------------------------------------------------------------------


 10 CALLS TO NUMERICAL SOLUTION IN TIME STEP 1 STRESS PERIOD 1
 59 TOTAL ITERATIONS
 
    Solving:  Stress period:     2    Time step:     1
 
1
                            STRESS PERIOD NO. 2, LENGTH =  0.1577880E+10
                            -----------------------------------------------
                            NUMBER OF TIME STEPS = 50
                            MULTIPLIER FOR DELT =     1.100
                            INITIAL TIME STEP SIZE =   1355674.    

 SLN_1 OUTER ITERATION SUMMARY
 ----------------------------------------------------------------------------------------------------------
                                OUTER      INNER                    STEP   MAXIMUM CHANGE MODEL-(CELLID) OR
 OUTER ITERATION STEP       ITERATION  ITERATION  MAXIMUM CHANGE SUCCESS             MODEL-PACKAGE-(NUMBER)
 ----------------------------------------------------------------------------------------------------------
 Model                              1          3      -2.3983068                              1_GWF-(1,8,4)
 Model                              2          3 -4.08637366E-02                              1_GWF-(1,6,5)
 Model                              3          2 -7.37188465E-05                             1_GWF-(1,13,2)
 Model                              4          2 -2.40609279E-06                             1_GWF-(1,13,1)
 Model                              5          1 -5.42326006E-08       *                     1_GWF-(1,13,1)
 Package                            5             2.91555525E-04                      1_GWF-SFR-(36)-inflow
 Model                              6          1 -2.99678504E-10       *                     1_GWF-(1,13,1)
 Package                            6             4.43305005E-06                      1_GWF-SFR-(36)-inflow
 Model                              7          1 -1.09480425E-10       *                     1_GWF-(1,13,1)
 Package                            7             1.94813720E-08       *              1_GWF-SFR-(36)-inflow
 ----------------------------------------------------------------------------------------------------------


 7 CALLS TO NUMERICAL SOLUTION IN TIME STEP 1 STRESS PERIOD 2
 13 TOTAL ITERATIONS
 
    Solving:  Stress period:     2    Time step:     2
 

 SLN_1 OUTER ITERATION SUMMARY
 ----------------------------------------------------------------------------------------------------------
                                OUTER      INNER                    STEP   MAXIMUM CHANGE MODEL-(CELLID) OR
 OUTER ITERATION STEP       ITERATION  ITERATION  MAXIMUM CHANGE SUCCESS             MODEL-PACKAGE-(NUMBER)
 ----------------------------------------------------------------------------------------------------------
 Model                              1          4      -2.4114538                              1_GWF-(1,8,4)
 Model                              2          3 -1.05213529E-02                             1_GWF-(1,10,5)
 Model                              3          2 -1.46458976E-04                             1_GWF-(1,13,2)
 Model                              4          2 -4.68167900E-06                             1_GWF-(1,13,1)
 Model                              5          1 -1.00222564E-07       *                     1_GWF-(1,13,1)
 Package                            5             5.60986915E-04                      1_GWF-SFR-(36)-inflow
 Model                              6          1 -7.74775799E-10       *                     1_GWF-(1,13,1)
 Package                            6             8.03805551E-06                      1_GWF-SFR-(36)-inflow
 Model                              7          1 -1.55523594E-10       *                     1_GWF-(1,13,1)
 Package                            7             4.90170045E-08       *              1_GWF-SFR-(36)-inflow
 ----------------------------------------------------------------------------------------------------------


 7 CALLS TO NUMERICAL SOLUTION IN TIME STEP 2 STRESS PERIOD 2
 14 TOTAL ITERATIONS
 
    Solving:  Stress period:     2    Time step:     3
 

 SLN_1 OUTER ITERATION SUMMARY
 ----------------------------------------------------------------------------------------------------------
                                OUTER      INNER                    STEP   MAXIMUM CHANGE MODEL-(CELLID) OR
 OUTER ITERATION STEP       ITERATION  ITERATION  MAXIMUM CHANGE SUCCESS             MODEL-PACKAGE-(NUMBER)
 ----------------------------------------------------------------------------------------------------------
 Model                              1          4      -2.3529568                              1_GWF-(1,8,4)
 Model                              2          3 -3.56825265E-02                              1_GWF-(1,9,6)
 Model                              3          2 -2.05303255E-04                             1_GWF-(1,13,2)
 Model                              4          2 -7.24203016E-06                             1_GWF-(1,13,1)
 Model                              5          1 -1.73662670E-07       *                     1_GWF-(1,13,1)
 Package                            5             1.01140096E-03                      1_GWF-SFR-(36)-inflow
 Model                              6          1 -2.15663931E-09       *                     1_GWF-(1,13,1)
 Package                            6             1.64536498E-05                      1_GWF-SFR-(36)-inflow
 Model                              7          1 -1.45632839E-10       *                     1_GWF-(1,13,1)
 Package                            7             1.60437490E-07       *              1_GWF-SFR-(36)-inflow
 ----------------------------------------------------------------------------------------------------------


 7 CALLS TO NUMERICAL SOLUTION IN TIME STEP 3 STRESS PERIOD 2
 14 TOTAL ITERATIONS
 
    Solving:  Stress period:     2    Time step:     4
 

 SLN_1 OUTER ITERATION SUMMARY
 ----------------------------------------------------------------------------------------------------------
                                OUTER      INNER                    STEP   MAXIMUM CHANGE MODEL-(CELLID) OR
 OUTER ITERATION STEP       ITERATION  ITERATION  MAXIMUM CHANGE SUCCESS             MODEL-PACKAGE-(NUMBER)
 ----------------------------------------------------------------------------------------------------------
 Model                              1          4      -2.2720817                              1_GWF-(1,8,4)
 Model                              2          3 -2.03989971E-02                              1_GWF-(1,7,6)
 Model                              3          2 -2.62969922E-04                             1_GWF-(1,13,2)
 Model                              4          2 -1.04894756E-05                             1_GWF-(1,13,1)
 Model                              5          1 -2.92266009E-07       *                     1_GWF-(1,13,1)
 Package                            5             1.77320759E-03                      1_GWF-SFR-(36)-inflow
 Model                              6          1 -5.12193310E-09       *                     1_GWF-(1,13,1)
 Package                            6             3.42500870E-05                      1_GWF-SFR-(36)-inflow
 Model                              7          1 -8.04902811E-11       *                     1_GWF-(1,13,1)
 Package                            7             4.64917114E-07       *              1_GWF-SFR-(36)-inflow
 ----------------------------------------------------------------------------------------------------------


 7 CALLS TO NUMERICAL SOLUTION IN TIME STEP 4 STRESS PERIOD 2
 14 TOTAL ITERATIONS
 
    Solving:  Stress period:     2    Time step:     5
 

 SLN_1 OUTER ITERATION SUMMARY
 ----------------------------------------------------------------------------------------------------------
                                OUTER      INNER                    STEP   MAXIMUM CHANGE MODEL-(CELLID) OR
 OUTER ITERATION STEP       ITERATION  ITERATION  MAXIMUM CHANGE SUCCESS             MODEL-PACKAGE-(NUMBER)
 ----------------------------------------------------------------------------------------------------------
 Model                              1          4      -2.1807313                              1_GWF-(1,8,4)
 Model                              2          3     -0.17505296                             1_GWF-(1,12,7)
 Model                              3          3 -2.83617912E-03                             1_GWF-(1,11,7)
 Model                              4          2 -5.76895102E-05                             1_GWF-(1,11,7)
 Model                              5          2 -1.02568970E-06                             1_GWF-(1,11,7)
 Model                              6          1 -1.75684818E-08       *                     1_GWF-(1,11,7)
 Package                            6             3.81962648E-05                      1_GWF-SFR-(36)-inflow
 Model                              7          1 -9.73159331E-11       *                     1_GWF-(1,11,7)
 Package                            7             4.65269436E-07       *              1_GWF-SFR-(36)-inflow
 ----------------------------------------------------------------------------------------------------------


 7 CALLS TO NUMERICAL SOLUTION IN TIME STEP 5 STRESS PERIOD 2
 16 TOTAL ITERATIONS
 
    Solving:  Stress period:     2    Time step:     6
 

 SLN_1 OUTER ITERATION SUMMARY
 ----------------------------------------------------------------------------------------------------------
                                OUTER      INNER                    STEP   MAXIMUM CHANGE MODEL-(CELLID) OR
 OUTER ITERATION STEP       ITERATION  ITERATION  MAXIMUM CHANGE SUCCESS             MODEL-PACKAGE-(NUMBER)
 ----------------------------------------------------------------------------------------------------------
 Model                              1          4      -2.0921834                              1_GWF-(1,8,4)
 Model                              2          3     -0.20844838                             1_GWF-(1,11,7)
 Model                              3          2 -1.12886010E-03                             1_GWF-(1,11,7)
 Model                              4          2 -4.16423893E-06                             1_GWF-(1,13,1)
 Model                              5          1 -9.49174819E-08       *                     1_GWF-(1,13,1)
 Package                            5             6.36204670E-04                      1_GWF-SFR-(36)-inflow
 Model                              6          1 -6.38010533E-10       *                     1_GWF-(1,13,1)
 Package                            6             9.46117957E-06                      1_GWF-SFR-(36)-inflow
 Model                              7          1 -1.74054549E-10       *                     1_GWF-(1,13,1)
 Package                            7             5.18366848E-08       *              1_GWF-SFR-(36)-inflow
 ----------------------------------------------------------------------------------------------------------


 7 CALLS TO NUMERICAL SOLUTION IN TIME STEP 6 STRESS PERIOD 2
 14 TOTAL ITERATIONS
 
    Solving:  Stress period:     2    Time step:     7
 

 SLN_1 OUTER ITERATION SUMMARY
 ----------------------------------------------------------------------------------------------------------
                                OUTER      INNER                    STEP   MAXIMUM CHANGE MODEL-(CELLID) OR
 OUTER ITERATION STEP       ITERATION  ITERATION  MAXIMUM CHANGE SUCCESS             MODEL-PACKAGE-(NUMBER)
 ----------------------------------------------------------------------------------------------------------
 Model                              1          4      -2.0126759                              1_GWF-(1,8,4)
 Model                              2          3     -0.12269119                             1_GWF-(1,11,7)
 Model                              3          3 -1.32646159E-03                             1_GWF-(1,10,7)
 Model                              4          2 -6.16258217E-06                             1_GWF-(1,10,7)
 Model                              5          1 -7.21927336E-08       *                     1_GWF-(1,13,1)
 Package                            5             5.10419495E-04                      1_GWF-SFR-(36)-inflow
 Model                              6          1 -3.04908099E-10       *                     1_GWF-(1,13,1)
 Package                            6             6.80577752E-06                      1_GWF-SFR-(36)-inflow
 Model                              7          1 -1.28693500E-10       *                     1_GWF-(1,13,1)
 Package                            7             2.45409020E-08       *              1_GWF-SFR-(36)-inflow
 ----------------------------------------------------------------------------------------------------------


 7 CALLS TO NUMERICAL SOLUTION IN TIME STEP 7 STRESS PERIOD 2
 15 TOTAL ITERATIONS
 
    Solving:  Stress period:     2    Time step:     8
 

 SLN_1 OUTER ITERATION SUMMARY
 ----------------------------------------------------------------------------------------------------------
                                OUTER      INNER                    STEP   MAXIMUM CHANGE MODEL-(CELLID) OR
 OUTER ITERATION STEP       ITERATION  ITERATION  MAXIMUM CHANGE SUCCESS             MODEL-PACKAGE-(NUMBER)
 ----------------------------------------------------------------------------------------------------------
 Model                              1          4      -1.9449263                              1_GWF-(1,8,4)
 Model                              2          3     -0.19693098                             1_GWF-(1,10,7)
 Model                              3          3 -2.34389473E-03                             1_GWF-(1,10,7)
 Model                              4          2 -1.33009046E-05                             1_GWF-(1,10,7)
 Model                              5          1 -5.62106379E-08       *                     1_GWF-(1,13,1)
 Package                            5             4.19407077E-04                      1_GWF-SFR-(36)-inflow
 Model                              6          1 -3.96994437E-10       *                     1_GWF-(1,11,6)
 Package                            6             5.80202868E-06                      1_GWF-SFR-(36)-inflow
 Model                              7          1 -1.59161573E-10       *                     1_GWF-(1,11,6)
 Package                            7             2.80687100E-08       *              1_GWF-SFR-(36)-inflow
 ----------------------------------------------------------------------------------------------------------


 7 CALLS TO NUMERICAL SOLUTION IN TIME STEP 8 STRESS PERIOD 2
 15 TOTAL ITERATIONS
 
    Solving:  Stress period:     2    Time step:     9
 

 SLN_1 OUTER ITERATION SUMMARY
 ----------------------------------------------------------------------------------------------------------
                                OUTER      INNER                    STEP   MAXIMUM CHANGE MODEL-(CELLID) OR
 OUTER ITERATION STEP       ITERATION  ITERATION  MAXIMUM CHANGE SUCCESS             MODEL-PACKAGE-(NUMBER)
 ----------------------------------------------------------------------------------------------------------
 Model                              1          4      -1.8914032                              1_GWF-(1,8,4)
 Model                              2          4     -0.18344445                             1_GWF-(1,10,7)
 Model                              3          3 -1.76040757E-03                             1_GWF-(1,10,7)
 Model                              4          2 -4.27973146E-06                             1_GWF-(1,13,1)
 Model                              5          1 -7.75735316E-08       *                     1_GWF-(1,13,1)
 Package                            5             6.12041414E-04                      1_GWF-SFR-(36)-inflow
 Model                              6          1 -2.92743607E-10       *                     1_GWF-(1,13,1)
 Package                            6             8.00217987E-06                      1_GWF-SFR-(36)-inflow
 Model                              7          1 -1.34832590E-10       *                     1_GWF-(1,13,1)
 Package                            7             2.82360248E-08       *              1_GWF-SFR-(36)-inflow
 ----------------------------------------------------------------------------------------------------------


 7 CALLS TO NUMERICAL SOLUTION IN TIME STEP 9 STRESS PERIOD 2
 16 TOTAL ITERATIONS
 
    Solving:  Stress period:     2    Time step:    10
 

 SLN_1 OUTER ITERATION SUMMARY
 ----------------------------------------------------------------------------------------------------------
                                OUTER      INNER                    STEP   MAXIMUM CHANGE MODEL-(CELLID) OR
 OUTER ITERATION STEP       ITERATION  ITERATION  MAXIMUM CHANGE SUCCESS             MODEL-PACKAGE-(NUMBER)
 ----------------------------------------------------------------------------------------------------------
 Model                              1          4      -1.8538083                              1_GWF-(1,8,4)
 Model                              2          4     -0.10301068                              1_GWF-(1,9,6)
 Model                              3          3 -9.72151084E-04                              1_GWF-(1,9,6)
 Model                              4          2 -3.80120980E-06                             1_GWF-(1,13,1)
 Model                              5          1 -5.61421984E-08       *                     1_GWF-(1,13,1)
 Package                            5             4.71080634E-04                      1_GWF-SFR-(36)-inflow
 Model                              6          1 -9.78843673E-11       *                     1_GWF-(1,13,1)
 Package                            6             5.03808747E-06                      1_GWF-SFR-(36)-inflow
 Model                              7          1 -6.60520527E-11       *                     1_GWF-(1,13,1)
 Package                            7             8.82788743E-09       *              1_GWF-SFR-(36)-inflow
 ----------------------------------------------------------------------------------------------------------


 7 CALLS TO NUMERICAL SOLUTION IN TIME STEP 10 STRESS PERIOD 2
 16 TOTAL ITERATIONS
 
    Solving:  Stress period:     2    Time step:    11
 

 SLN_1 OUTER ITERATION SUMMARY
 ----------------------------------------------------------------------------------------------------------
                                OUTER      INNER                    STEP   MAXIMUM CHANGE MODEL-(CELLID) OR
 OUTER ITERATION STEP       ITERATION  ITERATION  MAXIMUM CHANGE SUCCESS             MODEL-PACKAGE-(NUMBER)
 ----------------------------------------------------------------------------------------------------------
 Model                              1          4      -1.8352026                              1_GWF-(1,8,4)
 Model                              2          4     -0.14686791                              1_GWF-(1,9,6)
 Model                              3          3 -1.84447216E-03                              1_GWF-(1,9,6)
 Model                              4          2 -8.92362505E-06                              1_GWF-(1,9,6)
 Model                              5          1 -6.42779696E-08       *                     1_GWF-(1,13,1)
 Package                            5             5.70261412E-04                      1_GWF-SFR-(36)-inflow
 Model                              6          1 -3.13775672E-10       *                     1_GWF-(1,10,5)
 Package                            6             6.39010879E-06                      1_GWF-SFR-(36)-inflow
 Model                              7          1 -1.47565515E-10       *                     1_GWF-(1,10,5)
 Package                            7             2.29616683E-08       *              1_GWF-SFR-(36)-inflow
 ----------------------------------------------------------------------------------------------------------


 7 CALLS TO NUMERICAL SOLUTION IN TIME STEP 11 STRESS PERIOD 2
 16 TOTAL ITERATIONS
 
    Solving:  Stress period:     2    Time step:    12
 

 SLN_1 OUTER ITERATION SUMMARY
 ----------------------------------------------------------------------------------------------------------
                                OUTER      INNER                    STEP   MAXIMUM CHANGE MODEL-(CELLID) OR
 OUTER ITERATION STEP       ITERATION  ITERATION  MAXIMUM CHANGE SUCCESS             MODEL-PACKAGE-(NUMBER)
 ----------------------------------------------------------------------------------------------------------
 Model                              1          4      -1.8334792                              1_GWF-(1,8,4)
 Model                              2          4     -0.17050770                              1_GWF-(1,9,6)
 Model                              3          3 -2.15934142E-03                              1_GWF-(1,9,6)
 Model                              4          2 -1.13288427E-05                              1_GWF-(1,9,6)
 Model                              5          1 -8.54654445E-08       *                     1_GWF-(1,13,1)
 Package                            5             8.04859850E-04                      1_GWF-SFR-(36)-inflow
 Model                              6          1 -6.05496098E-10       *                     1_GWF-(1,10,5)
 Package                            6             9.65239929E-06                      1_GWF-SFR-(36)-inflow
 Model                              7          1 -2.12480700E-10       *                     1_GWF-(1,10,5)
 Package                            7             4.73157277E-08       *              1_GWF-SFR-(36)-inflow
 ----------------------------------------------------------------------------------------------------------


 7 CALLS TO NUMERICAL SOLUTION IN TIME STEP 12 STRESS PERIOD 2
 16 TOTAL ITERATIONS
 
    Solving:  Stress period:     2    Time step:    13
 

 SLN_1 OUTER ITERATION SUMMARY
 ----------------------------------------------------------------------------------------------------------
                                OUTER      INNER                    STEP   MAXIMUM CHANGE MODEL-(CELLID) OR
 OUTER ITERATION STEP       ITERATION  ITERATION  MAXIMUM CHANGE SUCCESS             MODEL-PACKAGE-(NUMBER)
 ----------------------------------------------------------------------------------------------------------
 Model                              1          4      -1.8456623                              1_GWF-(1,8,4)
 Model                              2          4     -0.13298570                              1_GWF-(1,8,6)
 Model                              3          3 -5.23120073E-03                              1_GWF-(1,8,6)
 Model                              4          3 -1.56994006E-04                              1_GWF-(1,8,6)
 Model                              5          2 -1.67199551E-06                              1_GWF-(1,8,6)
 Model                              6          1 -2.26848442E-08       *                      1_GWF-(1,8,6)
 Package                            6             1.49455946E-05                      1_GWF-SFR-(36)-inflow
 Model                              7          1 -3.21733751E-10       *                      1_GWF-(1,7,7)
 Package                            7             2.11224430E-07       *              1_GWF-SFR-(36)-inflow
 ----------------------------------------------------------------------------------------------------------


 7 CALLS TO NUMERICAL SOLUTION IN TIME STEP 13 STRESS PERIOD 2
 18 TOTAL ITERATIONS
 
    Solving:  Stress period:     2    Time step:    14
 

 SLN_1 OUTER ITERATION SUMMARY
 ----------------------------------------------------------------------------------------------------------
                                OUTER      INNER                    STEP   MAXIMUM CHANGE MODEL-(CELLID) OR
 OUTER ITERATION STEP       ITERATION  ITERATION  MAXIMUM CHANGE SUCCESS             MODEL-PACKAGE-(NUMBER)
 ----------------------------------------------------------------------------------------------------------
 Model                              1          4      -1.8831707                              1_GWF-(1,8,3)
 Model                              2          4     -0.10417564                              1_GWF-(1,6,8)
 Model                              3          4 -1.59648988E-02                              1_GWF-(1,8,6)
 Model                              4          3 -2.59840293E-04                              1_GWF-(1,8,6)
 Model                              5          2 -3.83617703E-06                              1_GWF-(1,8,6)
 Model                              6          1 -5.82112989E-08       *                      1_GWF-(1,8,6)
 Package                            6             2.58109440E-05                      1_GWF-SFR-(22)-inflow
 Model                              7          1 -7.41692929E-10       *                      1_GWF-(1,7,7)
 Package                            7             4.39177578E-07       *              1_GWF-SFR-(36)-inflow
 ----------------------------------------------------------------------------------------------------------


 7 CALLS TO NUMERICAL SOLUTION IN TIME STEP 14 STRESS PERIOD 2
 19 TOTAL ITERATIONS
 
    Solving:  Stress period:     2    Time step:    15
 

 SLN_1 OUTER ITERATION SUMMARY
 ----------------------------------------------------------------------------------------------------------
                                OUTER      INNER                    STEP   MAXIMUM CHANGE MODEL-(CELLID) OR
 OUTER ITERATION STEP       ITERATION  ITERATION  MAXIMUM CHANGE SUCCESS             MODEL-PACKAGE-(NUMBER)
 ----------------------------------------------------------------------------------------------------------
 Model                              1          4      -1.9307591                              1_GWF-(1,8,3)
 Model                              2          4     -0.16256520                              1_GWF-(1,6,8)
 Model                              3          3 -1.86831351E-03                              1_GWF-(1,6,8)
 Model                              4          2 -1.81767573E-05                              1_GWF-(1,6,8)
 Model                              5          1 -1.83183374E-07       *                     1_GWF-(1,13,1)
 Package                            5             2.08945854E-03                      1_GWF-SFR-(36)-inflow
 Model                              6          1 -2.12457962E-09       *                      1_GWF-(1,6,8)
 Package                            6             2.80156874E-05                      1_GWF-SFR-(36)-inflow
 Model                              7          1 -3.87444743E-10       *                      1_GWF-(1,6,8)
 Package                            7             1.89182883E-07       *              1_GWF-SFR-(36)-inflow
 ----------------------------------------------------------------------------------------------------------


 7 CALLS TO NUMERICAL SOLUTION IN TIME STEP 15 STRESS PERIOD 2
 16 TOTAL ITERATIONS
 
    Solving:  Stress period:     2    Time step:    16
 

 SLN_1 OUTER ITERATION SUMMARY
 ----------------------------------------------------------------------------------------------------------
                                OUTER      INNER                    STEP   MAXIMUM CHANGE MODEL-(CELLID) OR
 OUTER ITERATION STEP       ITERATION  ITERATION  MAXIMUM CHANGE SUCCESS             MODEL-PACKAGE-(NUMBER)
 ----------------------------------------------------------------------------------------------------------
 Model                              1          4      -1.9811313                              1_GWF-(1,8,3)
 Model                              2          4     -0.16752969                              1_GWF-(1,5,8)
 Model                              3          3 -6.61388107E-03                              1_GWF-(1,5,8)
 Model                              4          3 -2.49140228E-04                              1_GWF-(1,5,8)
 Model                              5          2 -9.39427150E-06                              1_GWF-(1,5,8)
 Model                              6          1 -3.52618827E-07       *                      1_GWF-(1,5,8)
 Package                            6             9.82334552E-05                      1_GWF-SFR-(14)-inflow
 Model                              7          1 -1.40250904E-08       *                      1_GWF-(1,5,8)
 Package                            7             3.69330677E-06                      1_GWF-SFR-(14)-inflow
 Model                              8          1 -6.60520527E-10       *                      1_GWF-(1,5,8)
 Package                            8             1.65202092E-07       *              1_GWF-SFR-(14)-inflow
 ----------------------------------------------------------------------------------------------------------


 8 CALLS TO NUMERICAL SOLUTION IN TIME STEP 16 STRESS PERIOD 2
 19 TOTAL ITERATIONS
 
    Solving:  Stress period:     2    Time step:    17
 

 SLN_1 OUTER ITERATION SUMMARY
 ----------------------------------------------------------------------------------------------------------
                                OUTER      INNER                    STEP   MAXIMUM CHANGE MODEL-(CELLID) OR
 OUTER ITERATION STEP       ITERATION  ITERATION  MAXIMUM CHANGE SUCCESS             MODEL-PACKAGE-(NUMBER)
 ----------------------------------------------------------------------------------------------------------
 Model                              1          5      -2.0290221                              1_GWF-(1,8,3)
 Model                              2          4     -0.18128112                              1_GWF-(1,3,6)
 Model                              3          4 -1.14187971E-02                              1_GWF-(1,5,8)
 Model                              4          3 -4.47441486E-04                              1_GWF-(1,5,8)
 Model                              5          2 -1.75892255E-05                              1_GWF-(1,5,8)
 Model                              6          1 -6.87831744E-07       *                      1_GWF-(1,5,8)
 Package                            6             2.01645651E-04                      1_GWF-SFR-(14)-inflow
 Model                              7          1 -3.14687441E-08       *                      1_GWF-(1,5,8)
 Package                            7             7.86504139E-06                      1_GWF-SFR-(14)-inflow
 Model                              8          1 -9.19953891E-10       *                      1_GWF-(1,5,8)
 Package                            8             3.86181682E-07       *              1_GWF-SFR-(14)-inflow
 ----------------------------------------------------------------------------------------------------------


 8 CALLS TO NUMERICAL SOLUTION IN TIME STEP 17 STRESS PERIOD 2
 21 TOTAL ITERATIONS
 
    Solving:  Stress period:     2    Time step:    18
 

 SLN_1 OUTER ITERATION SUMMARY
 ----------------------------------------------------------------------------------------------------------
                                OUTER      INNER                    STEP   MAXIMUM CHANGE MODEL-(CELLID) OR
 OUTER ITERATION STEP       ITERATION  ITERATION  MAXIMUM CHANGE SUCCESS             MODEL-PACKAGE-(NUMBER)
 ----------------------------------------------------------------------------------------------------------
 Model                              1          5      -2.0780726                              1_GWF-(1,8,3)
 Model                              2          4     -0.17098224                              1_GWF-(1,5,8)
 Model                              3          4 -7.47761560E-03                              1_GWF-(1,5,8)
 Model                              4          3 -3.16929695E-04                              1_GWF-(1,5,8)
 Model                              5          2 -1.34442460E-05                              1_GWF-(1,5,8)
 Model                              6          1 -5.66974904E-07       *                      1_GWF-(1,5,8)
 Package                            6             1.74976275E-04                      1_GWF-SFR-(14)-inflow
 Model                              7          1 -2.80981567E-08       *                      1_GWF-(1,5,8)
 Package                            7             7.35960407E-06                      1_GWF-SFR-(14)-inflow
 Model                              8          1 -9.61563273E-10       *                      1_GWF-(1,5,8)
 Package                            8             3.94133568E-07       *              1_GWF-SFR-(14)-inflow
 ----------------------------------------------------------------------------------------------------------


 8 CALLS TO NUMERICAL SOLUTION IN TIME STEP 18 STRESS PERIOD 2
 21 TOTAL ITERATIONS
 
    Solving:  Stress period:     2    Time step:    19
 

 SLN_1 OUTER ITERATION SUMMARY
 ----------------------------------------------------------------------------------------------------------
                                OUTER      INNER                    STEP   MAXIMUM CHANGE MODEL-(CELLID) OR
 OUTER ITERATION STEP       ITERATION  ITERATION  MAXIMUM CHANGE SUCCESS             MODEL-PACKAGE-(NUMBER)
 ----------------------------------------------------------------------------------------------------------
 Model                              1          5      -2.1289968                              1_GWF-(1,8,3)
 Model                              2          5     -0.20834605                              1_GWF-(1,5,8)
 Model                              3          4 -9.75436800E-03                              1_GWF-(1,5,8)
 Model                              4          3 -4.45129244E-04                              1_GWF-(1,5,8)
 Model                              5          2 -2.03336879E-05                              1_GWF-(1,5,8)
 Model                              6          1 -9.22731260E-07       *                      1_GWF-(1,5,8)
 Package                            6             3.00040386E-04                      1_GWF-SFR-(14)-inflow
 Model                              7          1 -5.13637133E-08       *                      1_GWF-(1,5,8)
 Package                            7             1.35621455E-05                      1_GWF-SFR-(14)-inflow
 Model                              8          1 -1.78783921E-09       *                      1_GWF-(1,5,8)
 Package                            8             8.28880087E-07       *              1_GWF-SFR-(14)-inflow
 ----------------------------------------------------------------------------------------------------------


 8 CALLS TO NUMERICAL SOLUTION IN TIME STEP 19 STRESS PERIOD 2
 22 TOTAL ITERATIONS
 
    Solving:  Stress period:     2    Time step:    20
 

 SLN_1 OUTER ITERATION SUMMARY
 ----------------------------------------------------------------------------------------------------------
                                OUTER      INNER                    STEP   MAXIMUM CHANGE MODEL-(CELLID) OR
 OUTER ITERATION STEP       ITERATION  ITERATION  MAXIMUM CHANGE SUCCESS             MODEL-PACKAGE-(NUMBER)
 ----------------------------------------------------------------------------------------------------------
 Model                              1          5      -2.2007456                              1_GWF-(1,8,2)
 Model                              2          5     -0.24773767                              1_GWF-(1,5,8)
 Model                              3          4 -1.24846109E-02                              1_GWF-(1,5,8)
 Model                              4          3 -6.11542280E-04                              1_GWF-(1,5,8)
 Model                              5          2 -3.00151637E-05                              1_GWF-(1,5,8)
 Model                              6          2 -1.48186450E-06                              1_GWF-(1,5,8)
 Model                              7          1 -7.20594926E-08       *                      1_GWF-(1,5,8)
 Package                            7             2.48405448E-05                      1_GWF-SFR-(14)-inflow
 Model                              8          1 -2.59319677E-09       *                      1_GWF-(1,5,8)
 Package                            8             1.19538437E-06                      1_GWF-SFR-(14)-inflow
 Model                              9          1 -7.55562723E-10       *                      1_GWF-(1,5,8)
 Package                            9             6.48554272E-08       *              1_GWF-SFR-(14)-inflow
 ----------------------------------------------------------------------------------------------------------


 9 CALLS TO NUMERICAL SOLUTION IN TIME STEP 20 STRESS PERIOD 2
 24 TOTAL ITERATIONS
 
    Solving:  Stress period:     2    Time step:    21
 

 SLN_1 OUTER ITERATION SUMMARY
 ----------------------------------------------------------------------------------------------------------
                                OUTER      INNER                    STEP   MAXIMUM CHANGE MODEL-(CELLID) OR
 OUTER ITERATION STEP       ITERATION  ITERATION  MAXIMUM CHANGE SUCCESS             MODEL-PACKAGE-(NUMBER)
 ----------------------------------------------------------------------------------------------------------
 Model                              1          5      -2.2909226                              1_GWF-(1,8,2)
 Model                              2          5     -0.58016424                              1_GWF-(1,4,8)
 Model                              3          4 -1.62790738E-02                              1_GWF-(1,4,8)
 Model                              4          2 -3.95373393E-04                              1_GWF-(1,4,8)
 Model                              5          2 -1.00833106E-05                              1_GWF-(1,4,8)
 Model                              6          1 -2.59721446E-07       *                      1_GWF-(1,4,8)
 Package                            6             1.09283237E-04                      1_GWF-SFR-(36)-inflow
 Model                              7          1 -3.30965122E-09       *                      1_GWF-(1,4,8)
 Package                            7             1.28292736E-06                      1_GWF-SFR-(36)-inflow
 Model                              8          1 -1.23031896E-09       *                      1_GWF-(1,4,8)
 Package                            8             2.02731938E-08       *              1_GWF-SFR-(13)-inflow
 ----------------------------------------------------------------------------------------------------------


 8 CALLS TO NUMERICAL SOLUTION IN TIME STEP 21 STRESS PERIOD 2
 21 TOTAL ITERATIONS
 
    Solving:  Stress period:     2    Time step:    22
 

 SLN_1 OUTER ITERATION SUMMARY
 ----------------------------------------------------------------------------------------------------------
                                OUTER      INNER                    STEP   MAXIMUM CHANGE MODEL-(CELLID) OR
 OUTER ITERATION STEP       ITERATION  ITERATION  MAXIMUM CHANGE SUCCESS             MODEL-PACKAGE-(NUMBER)
 ----------------------------------------------------------------------------------------------------------
 Model                              1          5      -2.3749870                              1_GWF-(1,8,2)
 Model                              2          5     -0.42991076                              1_GWF-(1,4,8)
 Model                              3          4 -1.24881405E-02                              1_GWF-(1,4,8)
 Model                              4          2 -3.43148483E-04                              1_GWF-(1,4,8)
 Model                              5          2 -9.77761192E-06                              1_GWF-(1,4,8)
 Model                              6          1 -2.82251222E-07       *                      1_GWF-(1,4,8)
 Package                            6             5.77150348E-05                      1_GWF-SFR-(36)-inflow
 Model                              7          1 -4.25461621E-09       *                      1_GWF-(1,4,8)
 Package                            7             8.03792096E-07       *              1_GWF-SFR-(13)-inflow
 ----------------------------------------------------------------------------------------------------------


 7 CALLS TO NUMERICAL SOLUTION IN TIME STEP 22 STRESS PERIOD 2
 20 TOTAL ITERATIONS
 
    Solving:  Stress period:     2    Time step:    23
 

 SLN_1 OUTER ITERATION SUMMARY
 ----------------------------------------------------------------------------------------------------------
                                OUTER      INNER                    STEP   MAXIMUM CHANGE MODEL-(CELLID) OR
 OUTER ITERATION STEP       ITERATION  ITERATION  MAXIMUM CHANGE SUCCESS             MODEL-PACKAGE-(NUMBER)
 ----------------------------------------------------------------------------------------------------------
 Model                              1          6      -2.4536568                              1_GWF-(1,8,2)
 Model                              2          5     -0.51993787                              1_GWF-(1,4,8)
 Model                              3          4 -1.84815064E-02                              1_GWF-(1,4,8)
 Model                              4          3 -5.74457914E-04                              1_GWF-(1,4,8)
 Model                              5          2 -1.84957262E-05                              1_GWF-(1,4,8)
 Model                              6          1 -5.96012569E-07       *                      1_GWF-(1,4,8)
 Package                            6             6.82084403E-05                      1_GWF-SFR-(36)-inflow
 Model                              7          1 -1.31828983E-08       *                      1_GWF-(1,4,8)
 Package                            7             2.00309020E-06                      1_GWF-SFR-(13)-inflow
 Model                              8          1 -2.51384336E-09       *                      1_GWF-(1,4,8)
 Package                            8             7.83621042E-08       *              1_GWF-SFR-(13)-inflow
 ----------------------------------------------------------------------------------------------------------


 8 CALLS TO NUMERICAL SOLUTION IN TIME STEP 23 STRESS PERIOD 2
 23 TOTAL ITERATIONS
 
    Solving:  Stress period:     2    Time step:    24
 

 SLN_1 OUTER ITERATION SUMMARY
 ----------------------------------------------------------------------------------------------------------
                                OUTER      INNER                    STEP   MAXIMUM CHANGE MODEL-(CELLID) OR
 OUTER ITERATION STEP       ITERATION  ITERATION  MAXIMUM CHANGE SUCCESS             MODEL-PACKAGE-(NUMBER)
 ----------------------------------------------------------------------------------------------------------
 Model                              1          6      -2.5280064                              1_GWF-(1,8,2)
 Model                              2          5     -0.59534950                              1_GWF-(1,3,7)
 Model                              3          3 -5.35049847E-04                              1_GWF-(1,3,7)
 Model                              4          2 -1.39367170E-05                             1_GWF-(1,13,1)
 Model                              5          1 -2.62350454E-07       *                     1_GWF-(1,13,1)
 Package                            5             5.73560155E-03                      1_GWF-SFR-(36)-inflow
 Model                              6          1 -2.66163624E-09       *                     1_GWF-(1,12,2)
 Package                            6             7.92901015E-05                      1_GWF-SFR-(36)-inflow
 Model                              7          1 -4.02565092E-10       *                     1_GWF-(1,12,2)
 Package                            7             9.57265129E-07       *              1_GWF-SFR-(36)-inflow
 ----------------------------------------------------------------------------------------------------------


 7 CALLS TO NUMERICAL SOLUTION IN TIME STEP 24 STRESS PERIOD 2
 19 TOTAL ITERATIONS
 
    Solving:  Stress period:     2    Time step:    25
 

 SLN_1 OUTER ITERATION SUMMARY
 ----------------------------------------------------------------------------------------------------------
                                OUTER      INNER                    STEP   MAXIMUM CHANGE MODEL-(CELLID) OR
 OUTER ITERATION STEP       ITERATION  ITERATION  MAXIMUM CHANGE SUCCESS             MODEL-PACKAGE-(NUMBER)
 ----------------------------------------------------------------------------------------------------------
 Model                              1          6      -2.6043198                              1_GWF-(1,7,2)
 Model                              2          5 -3.60395879E-02                              1_GWF-(1,6,6)
 Model                              3          3 -4.94898215E-04                             1_GWF-(1,13,1)
 Model                              4          2 -1.46619121E-05                             1_GWF-(1,13,1)
 Model                              5          1 -2.80337417E-07       *                     1_GWF-(1,13,1)
 Package                            5             6.62197041E-03                      1_GWF-SFR-(36)-inflow
 Model                              6          1 -3.02986791E-09       *                     1_GWF-(1,12,2)
 Package                            6             9.32734056E-05                      1_GWF-SFR-(36)-inflow
 Model                              7          1 -4.15639079E-10       *                     1_GWF-(1,12,2)
 Package                            7             1.19952898E-06                      1_GWF-SFR-(36)-inflow
 Model                              8          1 -2.11912266E-10       *                     1_GWF-(1,12,2)
 Package                            8             1.88603495E-07       *              1_GWF-SFR-(36)-inflow
 ----------------------------------------------------------------------------------------------------------


 8 CALLS TO NUMERICAL SOLUTION IN TIME STEP 25 STRESS PERIOD 2
 20 TOTAL ITERATIONS
 
    Solving:  Stress period:     2    Time step:    26
 

 SLN_1 OUTER ITERATION SUMMARY
 ----------------------------------------------------------------------------------------------------------
                                OUTER      INNER                    STEP   MAXIMUM CHANGE MODEL-(CELLID) OR
 OUTER ITERATION STEP       ITERATION  ITERATION  MAXIMUM CHANGE SUCCESS             MODEL-PACKAGE-(NUMBER)
 ----------------------------------------------------------------------------------------------------------
 Model                              1          6      -2.7252316                              1_GWF-(1,7,2)
 Model                              2          5 -4.44547955E-02                              1_GWF-(1,6,6)
 Model                              3          3 -5.14023357E-04                             1_GWF-(1,13,1)
 Model                              4          2 -1.55538808E-05                             1_GWF-(1,13,1)
 Model                              5          1 -3.06059974E-07       *                     1_GWF-(1,13,1)
 Package                            5             7.81416604E-03                      1_GWF-SFR-(36)-inflow
 Model                              6          1 -3.42822659E-09       *                     1_GWF-(1,12,2)
 Package                            6             1.14844133E-04                      1_GWF-SFR-(36)-inflow
 Model                              7          1 -3.98358679E-10       *                     1_GWF-(1,12,2)
 Package                            7             1.62027402E-06                      1_GWF-SFR-(36)-inflow
 Model                              8          1 -2.04522621E-10       *                     1_GWF-(1,12,2)
 Package                            8             2.18210149E-07       *              1_GWF-SFR-(36)-inflow
 ----------------------------------------------------------------------------------------------------------


 8 CALLS TO NUMERICAL SOLUTION IN TIME STEP 26 STRESS PERIOD 2
 20 TOTAL ITERATIONS
 
    Solving:  Stress period:     2    Time step:    27
 

 SLN_1 OUTER ITERATION SUMMARY
 ----------------------------------------------------------------------------------------------------------
                                OUTER      INNER                    STEP   MAXIMUM CHANGE MODEL-(CELLID) OR
 OUTER ITERATION STEP       ITERATION  ITERATION  MAXIMUM CHANGE SUCCESS             MODEL-PACKAGE-(NUMBER)
 ----------------------------------------------------------------------------------------------------------
 Model                              1          6      -2.8458683                              1_GWF-(1,7,2)
 Model                              2          5 -7.59127452E-02                             1_GWF-(1,12,8)
 Model                              3          3 -6.08445670E-04                             1_GWF-(1,13,1)
 Model                              4          2 -2.47825579E-05                             1_GWF-(1,13,1)
 Model                              5          1 -7.39564257E-07       *                     1_GWF-(1,13,1)
 Package                            5             2.02254783E-02                      1_GWF-SFR-(36)-inflow
 Model                              6          1 -1.64561698E-08       *                     1_GWF-(1,13,1)
 Package                            6             4.57925992E-04                      1_GWF-SFR-(36)-inflow
 Model                              7          1 -5.02495823E-10       *                     1_GWF-(1,10,5)
 Package                            7             9.40587776E-06                      1_GWF-SFR-(36)-inflow
 Model                              8          1 -3.11842996E-10       *                     1_GWF-(1,10,5)
 Package                            8             2.15206819E-07       *              1_GWF-SFR-(36)-inflow
 ----------------------------------------------------------------------------------------------------------


 8 CALLS TO NUMERICAL SOLUTION IN TIME STEP 27 STRESS PERIOD 2
 20 TOTAL ITERATIONS
 
    Solving:  Stress period:     2    Time step:    28
 

 SLN_1 OUTER ITERATION SUMMARY
 ----------------------------------------------------------------------------------------------------------
                                OUTER      INNER                    STEP   MAXIMUM CHANGE MODEL-(CELLID) OR
 OUTER ITERATION STEP       ITERATION  ITERATION  MAXIMUM CHANGE SUCCESS             MODEL-PACKAGE-(NUMBER)
 ----------------------------------------------------------------------------------------------------------
 Model                              1          6      -2.9658036                              1_GWF-(1,7,2)
 Model                              2          5 -6.84705293E-02                              1_GWF-(1,5,6)
 Model                              3          3 -5.86549836E-04                             1_GWF-(1,13,1)
 Model                              4          2 -1.82621753E-05                             1_GWF-(1,13,1)
 Model                              5          1 -3.69104669E-07       *                     1_GWF-(1,13,1)
 Package                            5             1.10381881E-02                      1_GWF-SFR-(36)-inflow
 Model                              6          1 -4.44788384E-09       *                     1_GWF-(1,13,1)
 Package                            6             1.69478352E-04                      1_GWF-SFR-(36)-inflow
 Model                              7          1 -3.82556209E-10       *                     1_GWF-(1,11,5)
 Package                            7             2.66257717E-06                      1_GWF-SFR-(36)-inflow
 Model                              8          1 -2.18165042E-10       *                     1_GWF-(1,11,5)
 Package                            8             2.75054651E-07       *              1_GWF-SFR-(36)-inflow
 ----------------------------------------------------------------------------------------------------------


 8 CALLS TO NUMERICAL SOLUTION IN TIME STEP 28 STRESS PERIOD 2
 20 TOTAL ITERATIONS
 
    Solving:  Stress period:     2    Time step:    29
 

 SLN_1 OUTER ITERATION SUMMARY
 ----------------------------------------------------------------------------------------------------------
                                OUTER      INNER                    STEP   MAXIMUM CHANGE MODEL-(CELLID) OR
 OUTER ITERATION STEP       ITERATION  ITERATION  MAXIMUM CHANGE SUCCESS             MODEL-PACKAGE-(NUMBER)
 ----------------------------------------------------------------------------------------------------------
 Model                              1          7      -3.1154865                              1_GWF-(1,7,1)
 Model                              2          6 -7.84774687E-02                              1_GWF-(1,5,6)
 Model                              3          3 -7.32546017E-04                             1_GWF-(1,13,1)
 Model                              4          2 -3.18407845E-05                             1_GWF-(1,13,1)
 Model                              5          1 -9.12673499E-07       *                     1_GWF-(1,13,1)
 Package                            5             2.93602867E-02                      1_GWF-SFR-(36)-inflow
 Model                              6          1 -1.84292048E-08       *                     1_GWF-(1,13,1)
 Package                            6             5.93020452E-04                      1_GWF-SFR-(36)-inflow
 Model                              7          1 -1.03148068E-09       *                     1_GWF-(1,10,5)
 Package                            7             1.16708136E-05                      1_GWF-SFR-(36)-inflow
 Model                              8          1 -5.69798431E-10       *                     1_GWF-(1,10,5)
 Package                            8             3.83680232E-07       *              1_GWF-SFR-(36)-inflow
 ----------------------------------------------------------------------------------------------------------


 8 CALLS TO NUMERICAL SOLUTION IN TIME STEP 29 STRESS PERIOD 2
 22 TOTAL ITERATIONS
 
    Solving:  Stress period:     2    Time step:    30
 

 SLN_1 OUTER ITERATION SUMMARY
 ----------------------------------------------------------------------------------------------------------
                                OUTER      INNER                    STEP   MAXIMUM CHANGE MODEL-(CELLID) OR
 OUTER ITERATION STEP       ITERATION  ITERATION  MAXIMUM CHANGE SUCCESS             MODEL-PACKAGE-(NUMBER)
 ----------------------------------------------------------------------------------------------------------
 Model                              1          7      -3.2625048                              1_GWF-(1,7,1)
 Model                              2          6 -8.77624873E-02                              1_GWF-(1,5,6)
 Model                              3          4 -6.45290631E-04                             1_GWF-(1,13,1)
 Model                              4          2 -2.13118047E-05                             1_GWF-(1,13,1)
 Model                              5          1 -4.56603971E-07       *                     1_GWF-(1,13,1)
 Package                            5             1.60278537E-02                      1_GWF-SFR-(36)-inflow
 Model                              6          1 -6.39874997E-09       *                     1_GWF-(1,13,1)
 Package                            6             2.56963755E-04                      1_GWF-SFR-(36)-inflow
 Model                              7          1 -5.49789547E-10       *                     1_GWF-(1,10,5)
 Package                            7             4.57806303E-06                      1_GWF-SFR-(36)-inflow
 Model                              8          1 -3.30032890E-10       *                     1_GWF-(1,10,5)
 Package                            8             3.56526131E-07       *              1_GWF-SFR-(36)-inflow
 ----------------------------------------------------------------------------------------------------------


 8 CALLS TO NUMERICAL SOLUTION IN TIME STEP 30 STRESS PERIOD 2
 23 TOTAL ITERATIONS
 
    Solving:  Stress period:     2    Time step:    31
 

 SLN_1 OUTER ITERATION SUMMARY
 ----------------------------------------------------------------------------------------------------------
                                OUTER      INNER                    STEP   MAXIMUM CHANGE MODEL-(CELLID) OR
 OUTER ITERATION STEP       ITERATION  ITERATION  MAXIMUM CHANGE SUCCESS             MODEL-PACKAGE-(NUMBER)
 ----------------------------------------------------------------------------------------------------------
 Model                              1          7      -3.4013730                              1_GWF-(1,7,1)
 Model                              2          6 -9.68841200E-02                              1_GWF-(1,5,6)
 Model                              3          4 -6.75819579E-04                             1_GWF-(1,13,1)
 Model                              4          2 -2.26818760E-05                             1_GWF-(1,13,1)
 Model                              5          1 -4.93594712E-07       *                     1_GWF-(1,13,1)
 Package                            5             1.87839507E-02                      1_GWF-SFR-(36)-inflow
 Model                              6          1 -7.29380645E-09       *                     1_GWF-(1,13,1)
 Package                            6             3.06759175E-04                      1_GWF-SFR-(36)-inflow
 Model                              7          1 -6.54381438E-10       *                     1_GWF-(1,10,5)
 Package                            7             5.76035537E-06                      1_GWF-SFR-(36)-inflow
 Model                              8          1 -3.96653377E-10       *                     1_GWF-(1,10,5)
 Package                            8             4.12729791E-07       *              1_GWF-SFR-(36)-inflow
 ----------------------------------------------------------------------------------------------------------


 8 CALLS TO NUMERICAL SOLUTION IN TIME STEP 31 STRESS PERIOD 2
 23 TOTAL ITERATIONS
 
    Solving:  Stress period:     2    Time step:    32
 

 SLN_1 OUTER ITERATION SUMMARY
 ----------------------------------------------------------------------------------------------------------
                                OUTER      INNER                    STEP   MAXIMUM CHANGE MODEL-(CELLID) OR
 OUTER ITERATION STEP       ITERATION  ITERATION  MAXIMUM CHANGE SUCCESS             MODEL-PACKAGE-(NUMBER)
 ----------------------------------------------------------------------------------------------------------
 Model                              1          7      -3.5311064                              1_GWF-(1,7,1)
 Model                              2          6     -0.39294410                              1_GWF-(1,1,1)
 Model                              3          4 -6.95379737E-04                             1_GWF-(1,13,1)
 Model                              4          2 -2.33745968E-05                             1_GWF-(1,13,1)
 Model                              5          1 -5.10852033E-07       *                     1_GWF-(1,13,1)
 Package                            5             2.10901480E-02                      1_GWF-SFR-(36)-inflow
 Model                              6          1 -8.18727131E-09       *                     1_GWF-(1,13,1)
 Package                            6             3.48953229E-04                      1_GWF-SFR-(36)-inflow
 Model                              7          1 -1.16665433E-09       *                      1_GWF-(1,9,5)
 Package                            7             7.17149346E-06                      1_GWF-SFR-(36)-inflow
 Model                              8          1 -6.82007339E-10       *                      1_GWF-(1,9,5)
 Package                            8             5.26505161E-07       *              1_GWF-SFR-(36)-inflow
 ----------------------------------------------------------------------------------------------------------


 8 CALLS TO NUMERICAL SOLUTION IN TIME STEP 32 STRESS PERIOD 2
 23 TOTAL ITERATIONS
 
    Solving:  Stress period:     2    Time step:    33
 

 SLN_1 OUTER ITERATION SUMMARY
 ----------------------------------------------------------------------------------------------------------
                                OUTER      INNER                    STEP   MAXIMUM CHANGE MODEL-(CELLID) OR
 OUTER ITERATION STEP       ITERATION  ITERATION  MAXIMUM CHANGE SUCCESS             MODEL-PACKAGE-(NUMBER)
 ----------------------------------------------------------------------------------------------------------
 Model                              1          7      -3.6500163                              1_GWF-(1,6,1)
 Model                              2          5 -1.05334784E-02                             1_GWF-(1,13,2)
 Model                              3          4 -7.17016556E-04                             1_GWF-(1,13,1)
 Model                              4          2 -2.42797564E-05                             1_GWF-(1,13,1)
 Model                              5          1 -5.34608034E-07       *                     1_GWF-(1,13,1)
 Package                            5             2.39489532E-02                      1_GWF-SFR-(36)-inflow
 Model                              6          1 -9.04572062E-09       *                     1_GWF-(1,13,1)
 Package                            6             4.01328322E-04                      1_GWF-SFR-(36)-inflow
 Model                              7          1 -1.66596692E-09       *                      1_GWF-(1,9,5)
 Package                            7             8.84159995E-06                      1_GWF-SFR-(36)-inflow
 Model                              8          1 -9.16656973E-10       *                      1_GWF-(1,9,5)
 Package                            8             6.42590338E-07       *              1_GWF-SFR-(36)-inflow
 ----------------------------------------------------------------------------------------------------------


 8 CALLS TO NUMERICAL SOLUTION IN TIME STEP 33 STRESS PERIOD 2
 22 TOTAL ITERATIONS
 
    Solving:  Stress period:     2    Time step:    34
 

 SLN_1 OUTER ITERATION SUMMARY
 ----------------------------------------------------------------------------------------------------------
                                OUTER      INNER                    STEP   MAXIMUM CHANGE MODEL-(CELLID) OR
 OUTER ITERATION STEP       ITERATION  ITERATION  MAXIMUM CHANGE SUCCESS             MODEL-PACKAGE-(NUMBER)
 ----------------------------------------------------------------------------------------------------------
 Model                              1          7      -3.7640698                              1_GWF-(1,6,1)
 Model                              2          5 -1.06990381E-02                             1_GWF-(1,13,2)
 Model                              3          4 -7.34627589E-04                             1_GWF-(1,13,1)
 Model                              4          2 -2.50364443E-05                             1_GWF-(1,13,1)
 Model                              5          1 -5.55587803E-07       *                     1_GWF-(1,13,1)
 Package                            5             2.70145752E-02                      1_GWF-SFR-(36)-inflow
 Model                              6          1 -9.90905846E-09       *                     1_GWF-(1,13,1)
 Package                            6             4.59030395E-04                      1_GWF-SFR-(36)-inflow
 Model                              7          1 -2.34479103E-09       *                      1_GWF-(1,9,5)
 Package                            7             1.08828971E-05                      1_GWF-SFR-(36)-inflow
 Model                              8          1 -1.19348442E-09       *                      1_GWF-(1,8,5)
 Package                            8             7.72525974E-07       *              1_GWF-SFR-(36)-inflow
 ----------------------------------------------------------------------------------------------------------


 8 CALLS TO NUMERICAL SOLUTION IN TIME STEP 34 STRESS PERIOD 2
 22 TOTAL ITERATIONS
 
    Solving:  Stress period:     2    Time step:    35
 

 SLN_1 OUTER ITERATION SUMMARY
 ----------------------------------------------------------------------------------------------------------
                                OUTER      INNER                    STEP   MAXIMUM CHANGE MODEL-(CELLID) OR
 OUTER ITERATION STEP       ITERATION  ITERATION  MAXIMUM CHANGE SUCCESS             MODEL-PACKAGE-(NUMBER)
 ----------------------------------------------------------------------------------------------------------
 Model                              1          7      -3.8612740                              1_GWF-(1,6,1)
 Model                              2          5 -1.16118942E-02                             1_GWF-(1,13,2)
 Model                              3          4 -7.66306408E-04                             1_GWF-(1,13,1)
 Model                              4          2 -2.58713220E-05                             1_GWF-(1,13,1)
 Model                              5          1 -5.82328880E-07       *                     1_GWF-(1,13,1)
 Package                            5             3.07385103E-02                      1_GWF-SFR-(36)-inflow
 Model                              6          1 -1.23038717E-08       *                     1_GWF-(1,10,5)
 Package                            6             5.32847044E-04                      1_GWF-SFR-(36)-inflow
 Model                              7          1 -3.36592620E-09       *                      1_GWF-(1,8,5)
 Package                            7             1.36859278E-05                      1_GWF-SFR-(36)-inflow
 Model                              8          1 -1.54363988E-09       *                      1_GWF-(1,8,5)
 Package                            8             9.31341499E-07       *              1_GWF-SFR-(36)-inflow
 ----------------------------------------------------------------------------------------------------------


 8 CALLS TO NUMERICAL SOLUTION IN TIME STEP 35 STRESS PERIOD 2
 22 TOTAL ITERATIONS
 
    Solving:  Stress period:     2    Time step:    36
 

 SLN_1 OUTER ITERATION SUMMARY
 ----------------------------------------------------------------------------------------------------------
                                OUTER      INNER                    STEP   MAXIMUM CHANGE MODEL-(CELLID) OR
 OUTER ITERATION STEP       ITERATION  ITERATION  MAXIMUM CHANGE SUCCESS             MODEL-PACKAGE-(NUMBER)
 ----------------------------------------------------------------------------------------------------------
 Model                              1          7      -3.9407940                              1_GWF-(1,6,1)
 Model                              2          5 -1.08958083E-02                             1_GWF-(1,13,2)
 Model                              3          4 -7.65577271E-04                             1_GWF-(1,13,1)
 Model                              4          2 -2.65814544E-05                             1_GWF-(1,13,1)
 Model                              5          1 -6.02052864E-07       *                     1_GWF-(1,13,1)
 Package                            5             3.45165370E-02                      1_GWF-SFR-(36)-inflow
 Model                              6          1 -1.60108584E-08       *                      1_GWF-(1,9,5)
 Package                            6             6.05998533E-04                      1_GWF-SFR-(36)-inflow
 Model                              7          1 -4.53928806E-09       *                      1_GWF-(1,8,5)
 Package                            7             1.66953546E-05                      1_GWF-SFR-(36)-inflow
 Model                              8          1 -1.90107130E-09       *                      1_GWF-(1,8,5)
 Package                            8             1.16596186E-06                      1_GWF-SFR-(36)-inflow
 Model                              9          1 -1.13755050E-09       *                      1_GWF-(1,8,5)
 Package                            9             5.68940588E-07       *              1_GWF-SFR-(36)-inflow
 ----------------------------------------------------------------------------------------------------------


 9 CALLS TO NUMERICAL SOLUTION IN TIME STEP 36 STRESS PERIOD 2
 23 TOTAL ITERATIONS
 
    Solving:  Stress period:     2    Time step:    37
 

 SLN_1 OUTER ITERATION SUMMARY
 ----------------------------------------------------------------------------------------------------------
                                OUTER      INNER                    STEP   MAXIMUM CHANGE MODEL-(CELLID) OR
 OUTER ITERATION STEP       ITERATION  ITERATION  MAXIMUM CHANGE SUCCESS             MODEL-PACKAGE-(NUMBER)
 ----------------------------------------------------------------------------------------------------------
 Model                              1          7      -4.0016268                              1_GWF-(1,6,1)
 Model                              2          5 -1.09178306E-02                             1_GWF-(1,13,2)
 Model                              3          4 -7.75759614E-04                             1_GWF-(1,13,1)
 Model                              4          2 -2.72011895E-05                             1_GWF-(1,13,1)
 Model                              5          1 -6.22444759E-07       *                     1_GWF-(1,13,1)
 Package                            5             3.87672927E-02                      1_GWF-SFR-(36)-inflow
 Model                              6          1 -2.08601705E-08       *                      1_GWF-(1,9,5)
 Package                            6             6.91872957E-04                      1_GWF-SFR-(36)-inflow
 Model                              7          1 -6.04518391E-09       *                      1_GWF-(1,8,5)
 Package                            7             2.02901961E-05                      1_GWF-SFR-(36)-inflow
 Model                              8          1 -2.33319497E-09       *                      1_GWF-(1,7,5)
 Package                            8             1.65616104E-06                      1_GWF-SFR-(36)-inflow
 Model                              9          1 -1.36594736E-09       *                      1_GWF-(1,7,5)
 Package                            9             7.38918040E-07       *              1_GWF-SFR-(36)-inflow
 ----------------------------------------------------------------------------------------------------------


 9 CALLS TO NUMERICAL SOLUTION IN TIME STEP 37 STRESS PERIOD 2
 23 TOTAL ITERATIONS
 
    Solving:  Stress period:     2    Time step:    38
 

 SLN_1 OUTER ITERATION SUMMARY
 ----------------------------------------------------------------------------------------------------------
                                OUTER      INNER                    STEP   MAXIMUM CHANGE MODEL-(CELLID) OR
 OUTER ITERATION STEP       ITERATION  ITERATION  MAXIMUM CHANGE SUCCESS             MODEL-PACKAGE-(NUMBER)
[...]
 Package                           11            -7.42336335E-06                      1_GWF-SFR-(27)-inflow
 Model                             12          1  3.70391717E-10       *                      1_GWF-(1,6,3)
 Package                           12            -5.19450917E-06                      1_GWF-SFR-(27)-inflow
 Model                             13          1  2.93539415E-10       *                      1_GWF-(1,6,3)
 Package                           13            -3.90040832E-06                      1_GWF-SFR-(27)-inflow
 Model                             14          1  2.40106601E-10       *                      1_GWF-(1,6,3)
 Package                           14            -3.07368211E-06                      1_GWF-SFR-(27)-inflow
 Model                             15          1  2.01680450E-10       *                      1_GWF-(1,6,3)
 Package                           15            -2.50045859E-06                      1_GWF-SFR-(27)-inflow
 Model                             16          1  1.72349246E-10       *                      1_GWF-(1,6,3)
 Package                           16            -2.08871459E-06                      1_GWF-SFR-(27)-inflow
 Model                             17          1  1.49611878E-10       *                      1_GWF-(1,6,3)
 Package                           17            -1.77924135E-06                      1_GWF-SFR-(27)-inflow
 Model                             18          1  1.31421984E-10       *                      1_GWF-(1,6,3)
 Package                           18            -1.53997064E-06                      1_GWF-SFR-(27)-inflow
 Model                             19          1  1.16870069E-10       *                      1_GWF-(1,6,3)
 Package                           19            -1.34826928E-06                      1_GWF-SFR-(27)-inflow
 Model                             20          1  1.04591891E-10       *                      1_GWF-(1,6,3)
 Package                           20            -1.19289407E-06                      1_GWF-SFR-(27)-inflow
 Model                             21          1  9.45874490E-11       *                      1_GWF-(1,6,3)
 Package                           21            -1.06706089E-06                      1_GWF-SFR-(27)-inflow
 Model                             22          1  8.59472493E-11       *                      1_GWF-(1,6,3)
 Package                           22            -9.61787250E-07       *              1_GWF-SFR-(27)-inflow
 ----------------------------------------------------------------------------------------------------------


 22 CALLS TO NUMERICAL SOLUTION IN TIME STEP 47 STRESS PERIOD 3
 36 TOTAL ITERATIONS
 
    Solving:  Stress period:     3    Time step:    48
 

 SLN_1 OUTER ITERATION SUMMARY
 ----------------------------------------------------------------------------------------------------------
                                OUTER      INNER                    STEP   MAXIMUM CHANGE MODEL-(CELLID) OR
 OUTER ITERATION STEP       ITERATION  ITERATION  MAXIMUM CHANGE SUCCESS             MODEL-PACKAGE-(NUMBER)
 ----------------------------------------------------------------------------------------------------------
 Model                              1          6      0.17157464                            1_GWF-(1,10,10)
 Model                              2          5  2.95029685E-03                              1_GWF-(1,6,6)
 Model                              3          4  8.69547091E-05                             1_GWF-(1,11,7)
 Model                              4          2  5.47796185E-06                             1_GWF-(1,12,7)
 Model                              5          1  3.90298055E-07       *                     1_GWF-(1,13,1)
 Package                            5            -7.84523500E-02                      1_GWF-SFR-(36)-inflow
 Model                              6          1  3.63913841E-08       *                      1_GWF-(1,7,3)
 Package                            6            -5.10232648E-03                      1_GWF-SFR-(36)-inflow
 Model                              7          1  8.71250450E-09       *                      1_GWF-(1,6,3)
 Package                            7            -5.30709721E-04                      1_GWF-SFR-(27)-inflow
 Model                              8          1  2.21302798E-09       *                      1_GWF-(1,6,3)
 Package                            8            -1.13379730E-04                      1_GWF-SFR-(27)-inflow
 Model                              9          1  1.15414878E-09       *                      1_GWF-(1,6,3)
 Package                            9            -2.41850950E-05                      1_GWF-SFR-(27)-inflow
 Model                             10          1  7.43057171E-10       *                      1_GWF-(1,6,3)
 Package                           10            -1.24421065E-05                      1_GWF-SFR-(27)-inflow
 Model                             11          1  5.31372280E-10       *                      1_GWF-(1,6,3)
 Package                           11            -7.93866856E-06                      1_GWF-SFR-(27)-inflow
 Model                             12          1  4.05179890E-10       *                      1_GWF-(1,6,3)
 Package                           12            -5.64067543E-06                      1_GWF-SFR-(27)-inflow
 Model                             13          1  3.22415872E-10       *                      1_GWF-(1,6,3)
 Package                           13            -4.27632055E-06                      1_GWF-SFR-(27)-inflow
 Model                             14          1  2.64662958E-10       *                      1_GWF-(1,6,3)
 Package                           14            -3.39032263E-06                      1_GWF-SFR-(27)-inflow
 Model                             15          1  2.22371455E-10       *                      1_GWF-(1,6,3)
 Package                           15            -2.77496291E-06                      1_GWF-SFR-(27)-inflow
 Model                             16          1  1.90311766E-10       *                      1_GWF-(1,6,3)
 Package                           16            -2.32213964E-06                      1_GWF-SFR-(27)-inflow
 Model                             17          1  1.65300662E-10       *                      1_GWF-(1,6,3)
 Package                           17            -1.98359079E-06                      1_GWF-SFR-(27)-inflow
 Model                             18          1  1.45519152E-10       *                      1_GWF-(1,6,3)
 Package                           18            -1.71878015E-06                      1_GWF-SFR-(27)-inflow
 Model                             19          1  1.29375621E-10       *                      1_GWF-(1,6,3)
 Package                           19            -1.50808344E-06                      1_GWF-SFR-(27)-inflow
 Model                             20          1  1.15960574E-10       *                      1_GWF-(1,6,3)
 Package                           20            -1.33866853E-06                      1_GWF-SFR-(27)-inflow
 Model                             21          1  1.04819264E-10       *                      1_GWF-(1,6,3)
 Package                           21            -1.19900642E-06                      1_GWF-SFR-(27)-inflow
 Model                             22          1  9.52695700E-11       *                      1_GWF-(1,6,3)
 Package                           22            -1.08243992E-06                      1_GWF-SFR-(27)-inflow
 Model                             23          1  8.70841177E-11       *                      1_GWF-(1,6,3)
 Package                           23            -9.80490965E-07       *              1_GWF-SFR-(27)-inflow
 ----------------------------------------------------------------------------------------------------------


 23 CALLS TO NUMERICAL SOLUTION IN TIME STEP 48 STRESS PERIOD 3
 36 TOTAL ITERATIONS
 
    Solving:  Stress period:     3    Time step:    49
 

 SLN_1 OUTER ITERATION SUMMARY
 ----------------------------------------------------------------------------------------------------------
                                OUTER      INNER                    STEP   MAXIMUM CHANGE MODEL-(CELLID) OR
 OUTER ITERATION STEP       ITERATION  ITERATION  MAXIMUM CHANGE SUCCESS             MODEL-PACKAGE-(NUMBER)
 ----------------------------------------------------------------------------------------------------------
 Model                              1          5  8.21919825E-02                            1_GWF-(1,10,10)
 Model                              2          5  1.20616834E-03                              1_GWF-(1,6,6)
 Model                              3          4  3.55781249E-05                             1_GWF-(1,11,7)
 Model                              4          2  2.27360692E-06                             1_GWF-(1,12,7)
 Model                              5          1  1.61518528E-07       *                     1_GWF-(1,13,1)
 Package                            5            -3.56149028E-02                      1_GWF-SFR-(36)-inflow
 Model                              6          1  1.38441010E-08       *                      1_GWF-(1,8,3)
 Package                            6            -2.33990412E-03                      1_GWF-SFR-(36)-inflow
 Model                              7          1  4.01064426E-09       *                      1_GWF-(1,6,3)
 Package                            7            -2.32466353E-04                      1_GWF-SFR-(27)-inflow
 Model                              8          1  1.55569069E-09       *                      1_GWF-(1,6,3)
 Package                            8            -5.36035479E-05                      1_GWF-SFR-(27)-inflow
 Model                              9          1  9.05856723E-10       *                      1_GWF-(1,6,3)
 Package                            9            -1.98090866E-05                      1_GWF-SFR-(27)-inflow
 Model                             10          1  6.15045792E-10       *                      1_GWF-(1,6,3)
 Package                           10            -1.12985877E-05                      1_GWF-SFR-(27)-inflow
 Model                             11          1  4.54292604E-10       *                      1_GWF-(1,6,3)
 Package                           11            -7.57381543E-06                      1_GWF-SFR-(27)-inflow
 Model                             12          1  3.53793439E-10       *                      1_GWF-(1,6,3)
 Package                           12            -5.53831695E-06                      1_GWF-SFR-(27)-inflow
 Model                             13          1  2.86263457E-10       *                      1_GWF-(1,6,3)
 Package                           13            -4.28325254E-06                      1_GWF-SFR-(27)-inflow
 Model                             14          1  2.37832865E-10       *                      1_GWF-(1,6,3)
 Package                           14            -3.44290378E-06                      1_GWF-SFR-(27)-inflow
 Model                             15          1  2.01907824E-10       *                      1_GWF-(1,6,3)
 Package                           15            -2.84742919E-06                      1_GWF-SFR-(27)-inflow
 Model                             16          1  1.74395609E-10       *                      1_GWF-(1,6,3)
 Package                           16            -2.40800442E-06                      1_GWF-SFR-(27)-inflow
 Model                             17          1  1.52567736E-10       *                      1_GWF-(1,6,3)
 Package                           17            -2.06746482E-06                      1_GWF-SFR-(27)-inflow
 Model                             18          1  1.35059963E-10       *                      1_GWF-(1,6,3)
 Package                           18            -1.80495622E-06                      1_GWF-SFR-(27)-inflow
 Model                             19          1  1.20508048E-10       *                      1_GWF-(1,6,3)
 Package                           19            -1.59040080E-06                      1_GWF-SFR-(27)-inflow
 Model                             20          1  1.08457243E-10       *                      1_GWF-(1,6,3)
 Package                           20            -1.41935223E-06                      1_GWF-SFR-(27)-inflow
 Model                             21          1  9.84528015E-11       *                      1_GWF-(1,6,3)
 Package                           21            -1.27386213E-06                      1_GWF-SFR-(27)-inflow
 Model                             22          1  8.98126018E-11       *                      1_GWF-(1,6,3)
 Package                           22            -1.15058908E-06                      1_GWF-SFR-(27)-inflow
 Model                             23          1  8.23092705E-11       *                      1_GWF-(1,6,3)
 Package                           23            -1.04855472E-06                      1_GWF-SFR-(27)-inflow
 Model                             24          1  7.59428076E-11       *                      1_GWF-(1,6,3)
 Package                           24            -9.59387222E-07       *              1_GWF-SFR-(27)-inflow
 ----------------------------------------------------------------------------------------------------------


 24 CALLS TO NUMERICAL SOLUTION IN TIME STEP 49 STRESS PERIOD 3
 36 TOTAL ITERATIONS
 
    Solving:  Stress period:     3    Time step:    50
 

 SLN_1 OUTER ITERATION SUMMARY
 ----------------------------------------------------------------------------------------------------------
                                OUTER      INNER                    STEP   MAXIMUM CHANGE MODEL-(CELLID) OR
 OUTER ITERATION STEP       ITERATION  ITERATION  MAXIMUM CHANGE SUCCESS             MODEL-PACKAGE-(NUMBER)
 ----------------------------------------------------------------------------------------------------------
 Model                              1          5  3.69936146E-02                            1_GWF-(1,10,10)
 Model                              2          4  4.72087327E-04                              1_GWF-(1,6,6)
 Model                              3          3  1.39806043E-05                             1_GWF-(1,11,7)
 Model                              4          1  8.88926934E-07       *                     1_GWF-(1,12,7)
 Package                            4                -0.28202723                      1_GWF-SFR-(27)-inflow
 Model                              5          1  9.27366273E-08       *                      1_GWF-(1,8,3)
 Package                            5            -1.51425342E-02                      1_GWF-SFR-(36)-inflow
 Model                              6          1  2.17000888E-08       *                      1_GWF-(1,7,3)
 Package                            6            -1.83162912E-03                      1_GWF-SFR-(27)-inflow
 Model                              7          1  5.48743628E-09       *                      1_GWF-(1,6,3)
 Package                            7            -3.56649423E-04                      1_GWF-SFR-(27)-inflow
 Model                              8          1  1.92562766E-09       *                      1_GWF-(1,6,3)
 Package                            8            -7.35893518E-05                      1_GWF-SFR-(27)-inflow
 Model                              9          1  1.08775566E-09       *                      1_GWF-(1,6,3)
 Package                            9            -2.45955786E-05                      1_GWF-SFR-(27)-inflow
 Model                             10          1  7.26458893E-10       *                      1_GWF-(1,6,3)
 Package                           10            -1.36590412E-05                      1_GWF-SFR-(27)-inflow
 Model                             11          1  5.30917532E-10       *                      1_GWF-(1,6,3)
 Package                           11            -9.03538563E-06                      1_GWF-SFR-(27)-inflow
 Model                             12          1  4.10409484E-10       *                      1_GWF-(1,6,3)
 Package                           12            -6.55452786E-06                      1_GWF-SFR-(27)-inflow
 Model                             13          1  3.29691829E-10       *                      1_GWF-(1,6,3)
 Package                           13            -5.03837807E-06                      1_GWF-SFR-(27)-inflow
 Model                             14          1  2.72848411E-10       *                      1_GWF-(1,6,3)
 Package                           14            -4.02927934E-06                      1_GWF-SFR-(27)-inflow
 Model                             15          1  2.30784281E-10       *                      1_GWF-(1,6,3)
 Package                           15            -3.32266260E-06                      1_GWF-SFR-(27)-inflow
 Model                             16          1  1.98497219E-10       *                      1_GWF-(1,6,3)
 Package                           16            -2.80196128E-06                      1_GWF-SFR-(27)-inflow
 Model                             17          1  1.73258741E-10       *                      1_GWF-(1,6,3)
 Package                           17            -2.40117552E-06                      1_GWF-SFR-(27)-inflow
 Model                             18          1  1.53022484E-10       *                      1_GWF-(1,6,3)
 Package                           18            -2.09041611E-06                      1_GWF-SFR-(27)-inflow
 Model                             19          1  1.36196832E-10       *                      1_GWF-(1,6,3)
 Package                           19            -1.84317226E-06                      1_GWF-SFR-(27)-inflow
 Model                             20          1  1.22554411E-10       *                      1_GWF-(1,6,3)
 Package                           20            -1.63830604E-06                      1_GWF-SFR-(27)-inflow
 Model                             21          1  1.10958354E-10       *                      1_GWF-(1,6,3)
 Package                           21            -1.47104159E-06                      1_GWF-SFR-(27)-inflow
 Model                             22          1  1.01181286E-10       *                      1_GWF-(1,6,3)
 Package                           22            -1.32927599E-06                      1_GWF-SFR-(27)-inflow
 Model                             23          1  9.25410859E-11       *                      1_GWF-(1,6,3)
 Package                           23            -1.20892408E-06                      1_GWF-SFR-(27)-inflow
 Model                             24          1  8.52651283E-11       *                      1_GWF-(1,6,3)
 Package                           24            -1.10476561E-06                      1_GWF-SFR-(27)-inflow
 Model                             25          1  7.88986654E-11       *                      1_GWF-(1,6,3)
 Package                           25            -1.01760906E-06                      1_GWF-SFR-(27)-inflow
 Model                             26          1  7.32143235E-11       *                      1_GWF-(1,6,3)
 Package                           26            -9.38341754E-07       *              1_GWF-SFR-(27)-inflow
 ----------------------------------------------------------------------------------------------------------


 26 CALLS TO NUMERICAL SOLUTION IN TIME STEP 50 STRESS PERIOD 3
 35 TOTAL ITERATIONS

 MEMORY MANAGER TOTAL STORAGE BY DATA TYPE, IN KILOBYTES
 -------------------------------
                    ALLOCATED   
 DATA TYPE           MEMORY     
 -------------------------------
 Character        3.4750000     
 Logical          4.00000000E-02
 Integer          31.524000     
 Real             82.456000     
 -------------------------------
 Total            117.49500     
 -------------------------------


 
 Run end date and time (yyyy/mm/dd hh:mm:ss): 2024/02/07 22:29:49
 Elapsed run time:  0.372 Seconds
 Normal termination of simulation.
